LAMMPS (11 Aug 2017)

# -------------------- Init Section -----------------------

units               real
boundary            p p p
atom_style          full
pair_style          lj/cut/coul/long 12.0
kspace_style        ewald 1.0e-5

# -------------------- Atom Definition Section ------------

read_data           silicalite.in #extra/angle/types 1
  orthogonal box = (0 0 0) to (24.2576 24.2576 24.2576)
  reading atoms ...
  584 atoms
  scanning bonds ...
  reading bonds ...
  696 bonds
group               faujasite type 1 2 3
584 atoms in group faujasite

molecule            CO2 CO2.in offset 3 1 0 0 0
Read molecule CO2:
  3 atoms with 5 types
  2 bonds with 2 types
  0 angles with 0 types
  0 dihedrals with 0 types
  0 impropers with 0 types
group               CO2 type 4 5
0 atoms in group CO2

group               O type 1 # O(FAU)
384 atoms in group O
group               Si type 2 # Si(FAU)
192 atoms in group Si
group               sodalite type 3 # dummy atoms
8 atoms in group sodalite

set                 group O charge -0.39299
  384 settings made for charge
set                 group Si charge 0.78598
  192 settings made for charge
set                 group sodalite charge 0.00000
  8 settings made for charge

pair_coeff          * * 0.0 0.0        # Si(FAU) - O(FAU) no interaction
pair_coeff          2 4 0.0 0.0        # Si(FAU) - C(CO2) no vdW interaction
pair_coeff          2 5 0.0 0.0        # Si(FAU) - O(CO2) no vdW interaction
pair_coeff          1 4 0.07471 3.511  # O(FAU) - C(CO2) vdW
pair_coeff          1 5 0.15695 3.237  # O(FAU) - O(CO2) vdW
pair_coeff          4 4 0.05960 2.745  # C(CO2) - C(CO2) vdW
pair_coeff          4 5 0.10063 2.880  # C(CO2) - O(CO2) vdW
pair_coeff          5 5 0.17024 3.017  # O(CO2) - O(CO2) vdW
pair_coeff          3 4 0.00100 3.000  # sodalite - C(CO2) repulsive
pair_coeff          3 5 0.00100 3.000  # sodalite - O(CO2) repulsive

# -------------------- Settings Section -------------------

compute_modify      thermo_temp dynamic yes
neighbor            2 bin
neigh_modify        every 1 delay 0 check no one 100000 page 5000000
neigh_modify        exclude group faujasite faujasite
variable            CO2ad equal (atoms-584)/3

# -------------------- Run Section ------------------------

fix                 1 faujasite rigid single force 1 off off off torque 1 off off off
1 rigid bodies with 584 atoms
fix                 averages all ave/time 50 51 5000 v_CO2ad file lammps.ave
fix                 fxgc CO2 gcmc 1 1 1 0 123456789 350.15 -0.5 0.5 mol CO2 pressure 1 full_energy

thermo 50
thermo_style        custom step v_CO2ad pe density temp

run 5000
Ewald initialization ...
  G vector (1/distance) = 0.238294
  estimated absolute RMS force accuracy = 0.00333133
  estimated relative force accuracy = 1.00322e-05
  KSpace vectors: actual max1d max3d = 462 6 1098
                  kxmax kymax kzmax  = 6 6 6
0 atoms in group FixGCMC:gcmc_exclusion_group:fxgc
0 atoms in group FixGCMC:rotation_gas_atoms:fxgc
  update every 1 steps, delay 0 steps, check no
Step v_CO2ad PotEng Density Temp
0            0   -7912.2666    1.3420473            0
Averages over the last 51 of 101 rows, steps 2500 to 5000:
v_CO2ad PotEng Density Temp
3.19608 -7922.4 1.35841 103.226
Loop time of 231.045 on 1 procs for 5000 steps with 596 atoms
