LAMMPS (11 Aug 2017)

#==Simulation Settings==#
			#
  units		real    # Define units in Å, fs, Kcal/mol, K, atm
  boundary	p p p	# The simulation cell is periodic in all directions of the space
  dimension 	3	# The simulation cell is 3-Dimensional
  atom_style 	full	# Define the system as a molecular set (atoms with bonds, etc.)
			#
#=======================#

#=========Simulation Variables==========#
					#
  variable	Cutoff	equal	12	# Cutoff Distance (Å)
  variable	T	equal	298.15 	# Temperature (K)
  variable	P	equal	1	# Pressure (atm)
					#
  timestep	2			# Timestep (fs)
  thermo	100			# Print thermo-output each 100 steps
					#
#---------------------------------------#
#== Box Parameters and Molecular PPTs ==#
					#
  variable      X       equal   30.	# x
  variable      Y       equal   30.	# y
  variable      Z       equal   90.	# z dimension length (Å)
					#
  variable      Rho1	equal   0.65478	# Density of Hexane at 25 C (g/cm3)
  variable      PM1	equal   86.1576	# Molar Mass of Hexane (g/mol)
  variable      Rho2	equal   0.99705	# Density of Water at 25 C (g/cm3)
  variable      PM2	equal   18.015	# Molar Mass of Water (g/mol)
  					#
#---------------------------------------#
					#
   molecule mol1 hexane.in 		# Load a molecule file
Read molecule mol1:
  6 atoms with 4 types
  5 bonds with 2 types
  4 angles with 2 types
  3 dihedrals with 1 types
  0 impropers with 0 types
   molecule mol2 water.in 		# Load a molecule file
Read molecule mol2:
  3 atoms with 2 types
  2 bonds with 1 types
  1 angles with 1 types
  0 dihedrals with 0 types
  0 impropers with 0 types
					# (you may add new molecules)
#---------------------------------------------------------------------------------------#
# Calculate the number of molecules to add in the sym box as a function of Rho, PM and  #
# XYZ cell parameters this variable fills 1/2 of the simulation cell (1 var per molec)	#
#---------------------------------------------------------------------------------------#
   variable	N1	equal	floor(30*30*(90/3)/1e24*6.023E23*0.65478/86.1576)
   variable	N2	equal	floor(30*30*(90/3)/1e24*6.023E23*0.99705/18.015)
#=======================================================================================#

#=========================== Box Creation ==============================#
									#
  lattice custom 1. a1 $X 0. 0. a2 0. $Y 0. a3 0. 0. $Z basis 0. 0. 0.	#
  lattice custom 1. a1 30 0. 0. a2 0. $Y 0. a3 0. 0. $Z basis 0. 0. 0.
  lattice custom 1. a1 30 0. 0. a2 0. 30 0. a3 0. 0. $Z basis 0. 0. 0.
  lattice custom 1. a1 30 0. 0. a2 0. 30 0. a3 0. 0. 90 basis 0. 0. 0.
Lattice spacing in x,y,z = 30 30 90
  region sym block 0 1 0 1 0 1 units lattice				#
Created orthogonal box = (0 0 0) to (30 30 90)
									#
#=============== Region Definition & Atom Creation======================#
									#
   region  Oil		block 	0  1   0   1   0   0.33 units lattice	# cubic region
   create_atoms 0	random  123	238271	Oil   mol mol1 151229
Created 738 atoms
   region  Water	block 	0  1   0   1   0.5   0.83 units lattice	# cubic region
   create_atoms 0	random  900	917419  Water mol mol2 616351
Created 2700 atoms
									# (you may add new regions
#=======================================================================# and new create_atoms)

#=======================================================================================#
											#
  variable	IFT	equal	(-((zhi-zlo)/2.0)*(((pxx+pyy)/2.0)-pzz))*0.0101325 	# Calculate IFT
  variable      TotEng  equal etotal							# Calculate Etotal
  fix averages  all     ave/time 1 10000 10000 	v_TotEng v_IFT 	file lammps.ave		#
											#
  dump 		trj all xyz 10000 lammps.xyz     					# Write traj. each 10000 timesteps
  thermo_style 	custom step temp press vol pe ke etotal	v_IFT				# What to print (you may add new keys)
											#
#=======================================================================================#

#======= Minimization Process With Soft Potential ======#
							#
  include	potential.ff				# Load the whole FF
# Force Field parameters file containing:

# --------------
# | FOR STYLES |
# --------------
#========================================================
  pair_style      	lj/cut/coul/long 12
  kspace_style		pppm	1e-3			# <- Uncomment for charged systems
  bond_style    	harmonic			#
  angle_style   	harmonic			#
  dihedral_style	opls				#
  improper_style	none				#
#========================================================

# ------------------
# | FOR ATOM TYPES |
# ------------------
# type 1 : O (water)
# type 2 : H (water)
# type 3 : CH3 (Terminal Aliphatic UA)
# type 4 : CH2 (Aliphatic UA)
#================================================
  mass  1               15.99940		#
  mass  2               1.007970		#
  mass  3               15.03461		#
  mass  4               14.02660		#
#-----------------------------------------------#
  set type	1 charge	-0.82 		#
  900 settings made for charge
  set type	2 charge	 0.41 		#
  1800 settings made for charge
  set type	3 charge	 0.00 		#
  246 settings made for charge
  set type	4 charge	 0.00 		#
  492 settings made for charge
#-----------------------------------------------#
						#
# LJ potential:   i  j   eps      sig		#
#-----------------------------------------------#
  pair_coeff      1  1	0.1554  3.16557		#
  pair_coeff      2  2	0.0000  0.00000		#
  pair_coeff      3  3	0.1750  3.90500		#
  pair_coeff      4  4	0.1180	3.90500		#
						#
  pair_modify tail yes mix arithmetic		#
#================================================

# ------------------
# | FOR BOND TYPES |
# ------------------
# type 1 : O-H (water)
# type 2 : CHx-CHx (Generic Aliphatic UA)
#================================================
  bond_coeff            1	450.0	1       #
  bond_coeff		2	260.0	1.526   #
#================================================

# -------------------
# | FOR ANGLE TYPES |
# -------------------
# type 1 : H-O-H (water)
# type 2 : CHx-CHx-CHx (Generic Aliphatic UA)
#================================================
  angle_coeff           1	55.0	109.47  #
  angle_coeff           2	63.0	112.40  #
#================================================

# ----------------------
# | FOR DIHEDRAL TYPES |
# ----------------------
# type 1 : CHx-CHx-CHx-CHx (Generic Aliphatic UA)
#====================================================
  dihedral_coeff        1	-3.40 1.25 3.10 0.0 #
#====================================================

# ----------------------
# | FOR IMPROPER TYPES |
# ----------------------
# no improper types
#====================================================
#====================================================

# --------------------------
# | FOR SPECIAL CONDITIONS |
# --------------------------
# Apply SHAKE to water molecules
#====================================================
  group	water	type 1 2
2700 atoms in group water
  fix SPC water shake 1e-4 50 0 b 1 a 1 mol mol2
#====================================================

							#
  pair_style 	soft 	3				# Change the LJ pair by Soft
  pair_coeff 	* * 	1				# Soft parameters
  kspace_style 	none					# Erase the long range coulombics
							#
  fix label1 all rigid/nvt molecule temp 10 10 200	# Time evolution scheme
1023 rigid bodies with 3438 atoms
    run 10000						# run during 10000 steps
  update every 1 steps, delay 10 steps, check yes
Step Temp Press Volume PotEng KinEng TotEng v_IFT
0            0    3262.6133        81000    6526.9894            0    6526.9894   -2233.3436
Averages over the last 51 of 101 rows, steps 5000 to 10000:
Temp Press Volume PotEng KinEng TotEng v_IFT
17.8148 100.718 81000 31.004 60.8024 91.8063 1.23226
Loop time of 15.0005 on 1 procs for 10000 steps with 3438 atoms

  unfix label1 						# Erase time evolution scheme
							#
#========= Simulation With Appropiate Potential ========#
							#
  include	potential.ff				# Load the whole FF
# Force Field parameters file containing:

# --------------
# | FOR STYLES |
# --------------
#========================================================
  pair_style      	lj/cut/coul/long 12
  kspace_style		pppm	1e-3			# <- Uncomment for charged systems
  bond_style    	harmonic			#
  angle_style   	harmonic			#
  dihedral_style	opls				#
  improper_style	none				#
#========================================================

# ------------------
# | FOR ATOM TYPES |
# ------------------
# type 1 : O (water)
# type 2 : H (water)
# type 3 : CH3 (Terminal Aliphatic UA)
# type 4 : CH2 (Aliphatic UA)
#================================================
  mass  1               15.99940		#
  mass  2               1.007970		#
  mass  3               15.03461		#
  mass  4               14.02660		#
#-----------------------------------------------#
  set type	1 charge	-0.82 		#
  900 settings made for charge
  set type	2 charge	 0.41 		#
  1800 settings made for charge
  set type	3 charge	 0.00 		#
  246 settings made for charge
  set type	4 charge	 0.00 		#
  492 settings made for charge
#-----------------------------------------------#
						#
# LJ potential:   i  j   eps      sig		#
#-----------------------------------------------#
  pair_coeff      1  1	0.1554  3.16557		#
  pair_coeff      2  2	0.0000  0.00000		#
  pair_coeff      3  3	0.1750  3.90500		#
  pair_coeff      4  4	0.1180	3.90500		#
						#
  pair_modify tail yes mix arithmetic		#
#================================================

# ------------------
# | FOR BOND TYPES |
# ------------------
# type 1 : O-H (water)
# type 2 : CHx-CHx (Generic Aliphatic UA)
#================================================
  bond_coeff            1	450.0	1       #
  bond_coeff		2	260.0	1.526   #
#================================================

# -------------------
# | FOR ANGLE TYPES |
# -------------------
# type 1 : H-O-H (water)
# type 2 : CHx-CHx-CHx (Generic Aliphatic UA)
#================================================
  angle_coeff           1	55.0	109.47  #
  angle_coeff           2	63.0	112.40  #
#================================================

# ----------------------
# | FOR DIHEDRAL TYPES |
# ----------------------
# type 1 : CHx-CHx-CHx-CHx (Generic Aliphatic UA)
#====================================================
  dihedral_coeff        1	-3.40 1.25 3.10 0.0 #
#====================================================

# ----------------------
# | FOR IMPROPER TYPES |
# ----------------------
# no improper types
#====================================================
#====================================================

# --------------------------
# | FOR SPECIAL CONDITIONS |
# --------------------------
# Apply SHAKE to water molecules
#====================================================
  group	water	type 1 2
2700 atoms in group water
  fix SPC water shake 1e-4 50 0 b 1 a 1 mol mol2
#====================================================

  fix label1 all npt temp $T $T 200 z $P $P 1000	# Time evolution scheme
  fix label1 all npt temp 298.15 $T 200 z $P $P 1000
  fix label1 all npt temp 298.15 298.15 200 z $P $P 1000
  fix label1 all npt temp 298.15 298.15 200 z 1 $P 1000
  fix label1 all npt temp 298.15 298.15 200 z 1 1 1000
    run 200000						# run during 200000 steps
PPPM initialization ...
  G vector (1/distance) = 0.167417
  grid = 8 8 16
  stencil order = 5
  estimated absolute RMS force accuracy = 0.260547
  estimated relative force accuracy = 0.000784631
  3d grid and FFT values/proc = 3549 1024
  update every 1 steps, delay 10 steps, check yes
Step Temp Press Volume PotEng KinEng TotEng v_IFT
10000    8.1615009    18537.562        81000    3509.8816    61.719842    3571.6014   -1023.3786
Averages over the last 1001 of 2001 rows, steps 110000 to 210000:
Temp Press Volume PotEng KinEng TotEng v_IFT
298.056 -111.045 54191.5 -9733.12 2254 -7479.12 40.4613
Loop time of 8912.93 on 1 procs for 200000 steps with 3438 atoms

  unfix label1						# Erase time evolution scheme
							#
#=======================================================#
